56
Coordinates from ORCA-job CuLCl
  C   -0.43366723857512      0.78548774567453      1.95652122277292
  C   0.15402741706367     -0.62333972998309      1.78315494042507
  N   0.74787140777198     -0.85655921935503      0.45568928862838
  C   1.73230758054501      0.17962023761067      0.10005810654082
  C   1.19026029137134      1.61201213370782      0.22264553536218
  C   -1.57719126339052      1.07974051340263      0.97417668754629
  N   -1.16392354468743      1.02221566644292     -0.43805280168697
  C   0.00030827172694      1.88177194995724     -0.71094237012272
  C   0.68081300701178      1.77197601863120      1.64632574102172
  C   2.30475151418600      2.59501714860539     -0.09414583040729
  C   -0.94653157882249      0.93917536980883      3.37849867368380
  O   1.10775566365392      2.58018143272089      2.43162129060918
  C   -2.29921028170759      1.27729174137898     -1.37876144142954
  C   1.29728221049398     -2.24160475117270      0.31135128593594
  C   -2.88967646110268      2.65939851677875     -1.29172235398928
  Cl  -1.33294487240399     -2.37040684170050     -2.22716431898978
  C   -2.39223409921125      3.69469043212046     -2.09278727827608
  C   -2.92208355211792      4.98039501301101     -1.99550903614863
  C   -3.95953380434806      5.24236608239934     -1.09998251029883
  C   -4.47245735240111      4.21307972394390     -0.30982216886988
  C   2.43814965602102     -2.56535720967640      1.23834606155441
  C   -3.94221307944740      2.92756123482904     -0.40784258168234
  C   3.76105460365466     -2.32050532354509      0.84940151213682
  C   4.81664125043403     -2.60364025619643      1.71476156084135
  C   4.56037506773216     -3.14114095755982      2.97662549455408
  C   3.24665203210409     -3.40400509935297      3.36647502086735
  Cu  -0.69813081624609     -0.83031321326875     -0.88781115330539
  C   2.19184371294521     -3.12044010666469      2.50038516652982
  H   0.93361204851478     -0.76751514938582      2.55013517207334
  H   -0.62511450169093     -1.38215695955646      1.95512372692742
  H   2.60546648656353      0.08310844142542      0.76732869480413
  H   2.07936844077629     -0.00638106809962     -0.92832273328267
  H   -1.96696492961184      2.08886592993167      1.19025228569593
  H   -2.40068191664173      0.36455383951644      1.12653161795975
  H   -0.29994738714412      2.93651856331065     -0.59138746385083
  H   0.30220122099935      1.73789277808645     -1.76026796789218
  H   3.15415420725768      2.44587205619481      0.58645470488973
  H   2.65390144304643      2.46014261622552     -1.12795138498837
  H   1.95077187796710      3.62809337435556      0.02570877086663
  H   -0.13529605254469      0.77081580019402      4.09991493505778
  H   -1.33787788598363      1.95324943993002      3.53798749762102
  H   -1.75039358340908      0.21583426921405      3.57708155302917
  H   -3.06476136118702      0.51860286253733     -1.15885264386505
  H   -1.91533880468994      1.08954406139376     -2.39229012317246
  H   1.61119463618201     -2.34601924437142     -0.73688326659696
  H   0.45721564364669     -2.93008452676932      0.48024030514682
  H   -1.58941978817631      3.49159609529353     -2.80681766540024
  H   -2.52607439405957      5.77956658524889     -2.62652164498712
  H   -4.37556513572457      6.24996966922811     -1.02406090188644
  H   -5.29388905141896      4.40978913875055      0.38318268477861
  H   -4.35797130280879      2.12127187799008      0.20240296020635
  H   3.96864210795842     -1.91420451649162     -0.14423895114489
  H   5.84434801153302     -2.40919111608488      1.39899961653972
  H   5.38763487576012     -3.36465421920408      3.65470136166385
  H   3.04128504349886     -3.83820496495302      4.34780654721662
  H   1.16543381313267     -3.34267511645889      2.80475497378681
