55
Coordinates from ORCA-job CuL
  C   -1.34973183347481     -1.21297904473774      1.76376767138239
  C   -0.79590326261256     -2.01444345770096      0.57994948034313
  N   0.44167465086017     -1.44592273414555      0.02354370250040
  C   1.46819101292805     -1.22841313504033      1.06123529952504
  C   0.98122794062357     -0.41414375254059      2.26669919677839
  C   -1.70583307696118      0.22630808815636      1.37045351007488
  N   -0.55705386834936      1.02985674063058      0.91004189841856
  C   0.55647874327811      1.00522960618384      1.87179243619684
  C   -0.24932375442164     -1.12386519634094      2.80969558165343
  C   2.09360504398318     -0.33690135815429      3.29870422697365
  C   -2.59093777382000     -1.90446386034603      2.30196384762790
  O   -0.34094011459844     -1.56103124913282      3.92833947829268
  C   -0.97913847092722      2.41553034346423      0.58528374599618
  C   0.97817955620943     -2.27311075821901     -1.08639630940919
  C   -1.60963341188631      2.36446528257042     -0.77347177676852
  C   -2.98997771094356      2.30316437788712     -0.95717573635874
  C   -3.51460361153824      2.08947428460414     -2.23248227114863
  C   -2.66921054686000      1.92406791852967     -3.33294037153461
  C   -1.29176107425863      1.99706210767764     -3.16525792199369
  C   -0.74976594136250      2.21352271847826     -1.88575058118751
  C   1.79390551953965     -1.35835375378311     -1.94860852115745
  C   1.09681668167622     -0.44624753743324     -2.77375260215506
  C   1.80595966998197      0.54094035677330     -3.48100756812958
  C   3.18806499061139      0.62268450542148     -3.36219864001375
  C   3.87330048640628     -0.29120838083951     -2.55690446617357
  C   3.18151767071411     -1.27412518283327     -1.84796522701352
  Cu  0.05421306359526      0.32346080108902     -0.89032405340021
  H   -0.58588235217762     -3.04734065140113      0.90906982565017
  H   -1.54627913348992     -2.06995125980338     -0.22338359915406
  H   2.33722226300627     -0.73104121312919      0.60435526660457
  H   1.80683250366034     -2.21765127433961      1.41511708876796
  H   -2.14408323107141      0.73438289664771      2.24719078931273
  H   -2.47303514759479      0.21622487011693      0.58128896455529
  H   0.24513505062045      1.55437624655177      2.77794491282138
  H   1.40840713242944      1.54724326386802      1.43354799728242
  H   2.39100195216631     -1.34498280154109      3.61828268720520
  H   2.97222612025817      0.17393018492465      2.87941356235830
  H   1.75462380997760      0.21523119753981      4.18583708308613
  H   -3.37259175330731     -1.94654521353692      1.52994815328905
  H   -2.35201265568156     -2.92906932045725      2.61800345635264
  H   -2.98468182340503     -1.36282095791411      3.17280700680455
  H   -0.08196644646234      3.04955055890339      0.57657738712036
  H   -1.66250334652024      2.78969376747120      1.36230661877147
  H   1.56261672809468     -3.11146894949909     -0.67850942425249
  H   0.12563529116824     -2.68188451533972     -1.64633907314437
  H   -3.65767455635407      2.41838359613844     -0.10046345772516
  H   -4.59749162679122      2.04477197355496     -2.36815410038602
  H   -3.08933442742050      1.75729667386846     -4.32652929546767
  H   -0.63752275341062      1.92091900864340     -4.03484036858875
  H   0.31803394549976      2.46451256843906     -1.78328136816056
  H   0.03872280013150     -0.63483027056472     -3.01629823582515
  H   1.28083349509762      1.22219443149417     -4.15194966033165
  H   3.73830282335098      1.38765643196682     -3.91320019923046
  H   4.96096498468191     -0.23354919564743     -2.47485049542317
  H   3.72218077515042     -1.97678677717386     -1.21012655161210
