55
Coordinates from ORCA-job CuL
  C   -0.98029530760498     -1.67297968341196      2.03239688777851
  C   0.52597713751414     -1.96736839152355      1.95724792417316
  N   1.32282329041501     -0.83349538621350      1.45798713511238
  C   1.05866516078567      0.41387460224622      2.19541431042882
  C   -0.43327746719624      0.77325018381940      2.27744882327998
  C   -1.59382526181648     -1.36399237814717      0.65800562240253
  N   -1.02705078623258     -0.16436462583128      0.01840199038655
  C   -1.05852139006220      1.01863456153366      0.89544666789126
  C   -1.14890786060740     -0.42453741113521      2.88670776046410
  C   -0.59675407911257      2.02347899846562      3.12546880876392
  C   -1.69047009144782     -2.87417318086320      2.63364275900800
  O   -1.77053803264593     -0.38877892751918      3.91613629037706
  C   -1.55851036098260      0.09124610573484     -1.35648859653834
  C   2.77874358473212     -1.14424939528185      1.30403823876870
  C   -3.03051980303762      0.40877812916751     -1.39273335847880
  C   -3.46951699942444      1.73262063484180     -1.27421719957959
  C   -4.83291133397984      2.02218028378023     -1.27838318195806
  C   -5.76545641335515      0.99226266308314     -1.40682747743328
  C   -5.33295807853952     -0.32756972374365     -1.54041887289646
  C   -3.97001425851754     -0.61898447336632     -1.53557512859675
  C   3.47140907292926     -1.47208229541819      2.60077935956767
  C   4.04007798533440     -0.45450694571447      3.37587192137199
  C   4.65321850652299     -0.75751082331322      4.59038286361852
  C   4.70726530346203     -2.07883959259679      5.03533910450490
  C   4.15534380929650     -3.09894755966308      4.25970027793275
  C   3.54115284400852     -2.79753587481001      3.04549135526812
  Cu  0.83516836942411     -0.54684969277339     -0.40944419585173
  H   0.88274102787934     -2.21743715785498      2.97094817796261
  H   0.71596705982013     -2.84003132736124      1.31462240299486
  H   1.62597302596397      1.22983547645733      1.72215773746202
  H   1.44341844513839      0.29217445820962      3.22241626947038
  H   -2.67726832108184     -1.20134195809524      0.78943989808168
  H   -1.46630016544353     -2.21975523234009     -0.02267246765444
  H   -2.11320376324289      1.31041498376505      1.03766887468628
  H   -0.54846025116996      1.84964225748787      0.38410036728264
  H   -0.18516486626197      1.85930724474401      4.13044390991301
  H   -0.07397156077023      2.87310673244874      2.66383081120460
  H   -1.66022177253621      2.27742838137041      3.22987611916784
  H   -1.55378467324433     -3.75993702442562      1.99725291994088
  H   -1.29136488042191     -3.09261417522593      3.63328902924000
  H   -2.76567542335503     -2.67262127176578      2.73202096802092
  H   -1.35204167354062     -0.81266253925037     -1.95011244487531
  H   -0.97875886372142      0.92988212488375     -1.77101013231355
  H   2.85187659308620     -1.99719137281132      0.61132906154210
  H   3.24312138660982     -0.26399872495381      0.83449787266919
  H   -2.74196145298836      2.54400866172096     -1.18845834154359
  H   -5.16715494618173      3.05813821991624     -1.18650249623410
  H   -6.83407008379926      1.22009547533306     -1.41125356744285
  H   -6.05944269526398     -1.13530658072846     -1.65494880089925
  H   -3.63465945448422     -1.65276373790339     -1.65437512249357
  H   4.01414366561507      0.58035034252315      3.02432430331998
  H   5.09564545073735      0.04254829294966      5.18833534606259
  H   5.18923262070895     -2.31586646538149      5.98688316699071
  H   4.20727393931692     -4.13636621548274      4.59800135919696
  H   3.12153027576953     -3.60112456257575      2.43437384948143
